Results/all_stages_from_terminal_uno/from_terminal_1/from_terminal_1/network_debug.txt
Pandapower Network Debug Info
==================================================

BUS:
           name  vn_kv type  zone  in_service   geo
0         Bus 8    0.4    b  None        True  None
1         Bus 9    0.4    b  None        True  None
2        Bus 10    0.4    b  None        True  None
3        Bus 11    0.4    b  None        True  None
4        Bus 16    0.4    b  None        True  None
5        Bus 17    0.4    b  None        True  None
6        Bus 18    0.4    b  None        True  None
7        Bus 19    0.4    b  None        True  None
8        Bus 20    0.4    b  None        True  None
9        Bus 21   15.0    b  None        True  None
10       Bus 22   15.0    b  None        True  None
11       Bus 23   15.0    b  None        True  None
12       Bus 24   15.0    b  None        True  None
13       Bus 25   15.0    b  None        True  None
14       Bus 26   15.0    b  None        True  None
15     Sub MV 2   15.0    b  None        True  None
16     Sub LV 2    0.4    b  None        True  None
17     Sub MV 5   15.0    b  None        True  None
18     Sub LV 5    0.4    b  None        True  None
19   Slack HV 0   70.0    b  None        True  None
20   Slack MV 0   15.0    b  None        True  None
21  Slack HV 27   70.0    b  None        True  None
22  Slack MV 27   15.0    b  None        True  None
--------------------------------------------------

LOAD:
            name  bus      p_mw        q_mvar  const_z_percent  const_i_percent  sn_mva  scaling  in_service type
0      Load 8 T1    0 -0.005580  2.599567e-04              0.0              0.0     NaN      1.0        True  wye
1      Load 8 T2    0 -0.009474  2.791419e-04              0.0              0.0     NaN      1.0        True  wye
2      Load 8 T3    0 -0.004832  2.286921e-04              0.0              0.0     NaN      1.0        True  wye
3      Load 8 T4    0 -0.004672  2.686711e-04              0.0              0.0     NaN      1.0        True  wye
4      Load 8 T5    0 -0.006011  2.204893e-04              0.0              0.0     NaN      1.0        True  wye
5      Load 8 T6    0 -0.005094  2.234764e-04              0.0              0.0     NaN      1.0        True  wye
6      Load 8 T7    0 -0.001820 -2.876517e-05              0.0              0.0     NaN      1.0        True  wye
7      Load 8 T8    0 -0.005459 -1.840314e-03              0.0              0.0     NaN      1.0        True  wye
8      Load 8 T9    0  0.000529 -5.948866e-04              0.0              0.0     NaN      1.0        True  wye
9     Load 8 T10    0  0.013506  2.986157e-04              0.0              0.0     NaN      1.0        True  wye
10    Load 8 T11    0  0.021621  2.181443e-04              0.0              0.0     NaN      1.0        True  wye
11    Load 8 T12    0  0.019520  2.750124e-04              0.0              0.0     NaN      1.0        True  wye
12    Load 8 T13    0  0.008161  2.421568e-04              0.0              0.0     NaN      1.0        True  wye
13    Load 8 T14    0 -0.006322 -5.924866e-04              0.0              0.0     NaN      1.0        True  wye
14    Load 8 T15    0 -0.005292 -1.585044e-03              0.0              0.0     NaN      1.0        True  wye
15    Load 8 T16    0 -0.001783 -8.405149e-04              0.0              0.0     NaN      1.0        True  wye
16    Load 8 T17    0 -0.004718 -5.349080e-04              0.0              0.0     NaN      1.0        True  wye
17    Load 8 T18    0 -0.010454  2.750018e-04              0.0              0.0     NaN      1.0        True  wye
18    Load 8 T19    0 -0.005162  2.528863e-04              0.0              0.0     NaN      1.0        True  wye
19    Load 8 T20    0 -0.006408  2.107013e-04              0.0              0.0     NaN      1.0        True  wye
20    Load 8 T21    0 -0.006962  2.301224e-04              0.0              0.0     NaN      1.0        True  wye
21    Load 8 T22    0 -0.004769  2.467112e-04              0.0              0.0     NaN      1.0        True  wye
22    Load 8 T23    0 -0.007572  2.403985e-04              0.0              0.0     NaN      1.0        True  wye
23    Load 8 T24    0 -0.003306  2.959661e-04              0.0              0.0     NaN      1.0        True  wye
24     Load 9 T1    1  0.002070  4.195514e-04              0.0              0.0     NaN      1.0        True  wye
25     Load 9 T2    1  0.001766  4.679596e-04              0.0              0.0     NaN      1.0        True  wye
26     Load 9 T3    1  0.001704  4.413145e-04              0.0              0.0     NaN      1.0        True  wye
27     Load 9 T4    1  0.001784  5.585903e-04              0.0              0.0     NaN      1.0        True  wye
28     Load 9 T5    1  0.001764  5.444796e-04              0.0              0.0     NaN      1.0        True  wye
29     Load 9 T6    1  0.001569  5.855831e-04              0.0              0.0     NaN      1.0        True  wye
30     Load 9 T7    1 -0.000667 -6.298857e-07              0.0              0.0     NaN      1.0        True  wye
31     Load 9 T8    1 -0.003302 -3.205334e-03              0.0              0.0     NaN      1.0        True  wye
32     Load 9 T9    1 -0.006726 -3.185750e-03              0.0              0.0     NaN      1.0        True  wye
33    Load 9 T10    1 -0.011261 -1.147754e-03              0.0              0.0     NaN      1.0        True  wye
34    Load 9 T11    1 -0.012471 -1.284981e-03              0.0              0.0     NaN      1.0        True  wye
35    Load 9 T12    1 -0.012263 -1.092012e-03              0.0              0.0     NaN      1.0        True  wye
36    Load 9 T13    1 -0.009700 -2.898563e-03              0.0              0.0     NaN      1.0        True  wye
37    Load 9 T14    1 -0.004122 -3.255645e-03              0.0              0.0     NaN      1.0        True  wye
38    Load 9 T15    1 -0.003532 -1.985005e-03              0.0              0.0     NaN      1.0        True  wye
39    Load 9 T16    1 -0.001603 -8.562288e-07              0.0              0.0     NaN      1.0        True  wye
40    Load 9 T17    1  0.001570 -2.878413e-04              0.0              0.0     NaN      1.0        True  wye
41    Load 9 T18    1  0.002155  5.710902e-04              0.0              0.0     NaN      1.0        True  wye
42    Load 9 T19    1  0.002044  4.595170e-04              0.0              0.0     NaN      1.0        True  wye
43    Load 9 T20    1  0.001952  4.011484e-04              0.0              0.0     NaN      1.0        True  wye
44    Load 9 T21    1  0.002255  5.171172e-04              0.0              0.0     NaN      1.0        True  wye
45    Load 9 T22    1  0.002275  4.831920e-04              0.0              0.0     NaN      1.0        True  wye
46    Load 9 T23    1  0.002162  5.707014e-04              0.0              0.0     NaN      1.0        True  wye
47    Load 9 T24    1  0.002331  5.446987e-04              0.0              0.0     NaN      1.0        True  wye
48    Load 10 T1    2 -0.002616  8.863916e-04              0.0              0.0     NaN      1.0        True  wye
49    Load 10 T2    2 -0.001769  6.808006e-04              0.0              0.0     NaN      1.0        True  wye
50    Load 10 T3    2 -0.002183  8.305697e-04              0.0              0.0     NaN      1.0        True  wye
51    Load 10 T4    2 -0.002329  7.616810e-04              0.0              0.0     NaN      1.0        True  wye
52    Load 10 T5    2 -0.002308  6.129828e-04              0.0              0.0     NaN      1.0        True  wye
53    Load 10 T6    2 -0.002113  8.418878e-04              0.0              0.0     NaN      1.0        True  wye
54    Load 10 T7    2 -0.000703 -5.390087e-04              0.0              0.0     NaN      1.0        True  wye
55    Load 10 T8    2 -0.004610 -1.421144e-03              0.0              0.0     NaN      1.0        True  wye
56    Load 10 T9    2  0.001369  5.390087e-04              0.0              0.0     NaN      1.0        True  wye
57   Load 10 T10    2  0.003614  5.985663e-04              0.0              0.0     NaN      1.0        True  wye
58   Load 10 T11    2  0.004610  7.305200e-04              0.0              0.0     NaN      1.0        True  wye
59   Load 10 T12    2  0.004610  6.076273e-04              0.0              0.0     NaN      1.0        True  wye
60   Load 10 T13    2  0.002062  5.390087e-04              0.0              0.0     NaN      1.0        True  wye
61   Load 10 T14    2 -0.004193 -1.368548e-03              0.0              0.0     NaN      1.0        True  wye
62   Load 10 T15    2 -0.004642 -2.645215e-03              0.0              0.0     NaN      1.0        True  wye
63   Load 10 T16    2 -0.000871 -5.390087e-04              0.0              0.0     NaN      1.0        True  wye
64   Load 10 T17    2 -0.002114 -2.132997e-04              0.0              0.0     NaN      1.0        True  wye
65   Load 10 T18    2 -0.002160  6.966424e-04              0.0              0.0     NaN      1.0        True  wye
66   Load 10 T19    2 -0.002589  6.964243e-04              0.0              0.0     NaN      1.0        True  wye
67   Load 10 T20    2 -0.001415  7.547407e-04              0.0              0.0     NaN      1.0        True  wye
68   Load 10 T21    2 -0.002645  6.945451e-04              0.0              0.0     NaN      1.0        True  wye
69   Load 10 T22    2 -0.002645  6.068298e-04              0.0              0.0     NaN      1.0        True  wye
70   Load 10 T23    2 -0.002167  8.277765e-04              0.0              0.0     NaN      1.0        True  wye
71   Load 10 T24    2 -0.002337  7.312966e-04              0.0              0.0     NaN      1.0        True  wye
72    Load 11 T1    3  0.003456  1.280473e-03              0.0              0.0     NaN      1.0        True  wye
73    Load 11 T2    3  0.003892  1.496096e-03              0.0              0.0     NaN      1.0        True  wye
74    Load 11 T3    3  0.004182  1.188513e-03              0.0              0.0     NaN      1.0        True  wye
75    Load 11 T4    3  0.003825  1.191553e-03              0.0              0.0     NaN      1.0        True  wye
76    Load 11 T5    3  0.003886  1.164781e-03              0.0              0.0     NaN      1.0        True  wye
77    Load 11 T6    3  0.003431  1.324700e-03              0.0              0.0     NaN      1.0        True  wye
78    Load 11 T7    3  0.000539  2.496888e-05              0.0              0.0     NaN      1.0        True  wye
79    Load 11 T8    3 -0.004265 -1.368548e-03              0.0              0.0     NaN      1.0        True  wye
80    Load 11 T9    3 -0.007634 -4.487992e-03              0.0              0.0     NaN      1.0        True  wye
81   Load 11 T10    3 -0.012288 -4.567323e-03              0.0              0.0     NaN      1.0        True  wye
82   Load 11 T11    3 -0.013602 -4.436605e-03              0.0              0.0     NaN      1.0        True  wye
83   Load 11 T12    3 -0.013769 -4.565794e-03              0.0              0.0     NaN      1.0        True  wye
84   Load 11 T13    3 -0.011138 -2.645215e-03              0.0              0.0     NaN      1.0        True  wye
85   Load 11 T14    3 -0.004771 -2.645215e-03              0.0              0.0     NaN      1.0        True  wye
86   Load 11 T15    3 -0.004610 -1.632942e-03              0.0              0.0     NaN      1.0        True  wye
87   Load 11 T16    3 -0.000163  0.000000e+00              0.0              0.0     NaN      1.0        True  wye
88   Load 11 T17    3  0.002604  5.390087e-04              0.0              0.0     NaN      1.0        True  wye
89   Load 11 T18    3  0.003090  1.441246e-03              0.0              0.0     NaN      1.0        True  wye
90   Load 11 T19    3  0.003040  1.331602e-03              0.0              0.0     NaN      1.0        True  wye
91   Load 11 T20    3  0.002989  1.544608e-03              0.0              0.0     NaN      1.0        True  wye
92   Load 11 T21    3  0.003947  1.508500e-03              0.0              0.0     NaN      1.0        True  wye
93   Load 11 T22    3  0.004184  1.483178e-03              0.0              0.0     NaN      1.0        True  wye
94   Load 11 T23    3  0.003218  1.273260e-03              0.0              0.0     NaN      1.0        True  wye
95   Load 11 T24    3  0.002957  1.188497e-03              0.0              0.0     NaN      1.0        True  wye
96    Load 16 T1    4  0.004124 -5.170906e-04              0.0              0.0     NaN      1.0        True  wye
97    Load 16 T2    4  0.004242 -6.656742e-04              0.0              0.0     NaN      1.0        True  wye
98    Load 16 T3    4  0.003726 -4.898700e-04              0.0              0.0     NaN      1.0        True  wye
99    Load 16 T4    4  0.003999 -6.621890e-04              0.0              0.0     NaN      1.0        True  wye
100   Load 16 T5    4  0.003774 -4.573200e-04              0.0              0.0     NaN      1.0        True  wye
101   Load 16 T6    4  0.003876 -5.589459e-04              0.0              0.0     NaN      1.0        True  wye
102   Load 16 T7    4  0.000763 -5.969181e-04              0.0              0.0     NaN      1.0        True  wye
103   Load 16 T8    4 -0.002501 -6.138968e-04              0.0              0.0     NaN      1.0        True  wye
104   Load 16 T9    4 -0.005907 -1.254544e-03              0.0              0.0     NaN      1.0        True  wye
105  Load 16 T10    4 -0.009451 -1.457706e-03              0.0              0.0     NaN      1.0        True  wye
106  Load 16 T11    4 -0.010536 -4.950377e-04              0.0              0.0     NaN      1.0        True  wye
107  Load 16 T12    4 -0.009534 -2.740710e-03              0.0              0.0     NaN      1.0        True  wye
108  Load 16 T13    4 -0.008390 -2.501290e-03              0.0              0.0     NaN      1.0        True  wye
109  Load 16 T14    4 -0.002666 -1.376990e-03              0.0              0.0     NaN      1.0        True  wye
110  Load 16 T15    4 -0.002654 -7.189261e-04              0.0              0.0     NaN      1.0        True  wye
111  Load 16 T16    4  0.000404 -5.064933e-04              0.0              0.0     NaN      1.0        True  wye
112  Load 16 T17    4  0.002209 -5.928356e-04              0.0              0.0     NaN      1.0        True  wye
113  Load 16 T18    4  0.003211 -5.524553e-04              0.0              0.0     NaN      1.0        True  wye
114  Load 16 T19    4  0.004626 -5.487576e-04              0.0              0.0     NaN      1.0        True  wye
115  Load 16 T20    4  0.004355 -6.501571e-04              0.0              0.0     NaN      1.0        True  wye
116  Load 16 T21    4  0.003431 -4.653302e-04              0.0              0.0     NaN      1.0        True  wye
117  Load 16 T22    4  0.003233 -6.153589e-04              0.0              0.0     NaN      1.0        True  wye
118  Load 16 T23    4  0.003190 -6.444015e-04              0.0              0.0     NaN      1.0        True  wye
119  Load 16 T24    4  0.004492 -5.120711e-04              0.0              0.0     NaN      1.0        True  wye
120   Load 17 T1    5  0.004983  1.179300e-03              0.0              0.0     NaN      1.0        True  wye
121   Load 17 T2    5  0.003803  1.035960e-03              0.0              0.0     NaN      1.0        True  wye
122   Load 17 T3    5  0.004437  1.008067e-03              0.0              0.0     NaN      1.0        True  wye
123   Load 17 T4    5  0.004357  9.188336e-04              0.0              0.0     NaN      1.0        True  wye
124   Load 17 T5    5  0.004486  9.712960e-04              0.0              0.0     NaN      1.0        True  wye
125   Load 17 T6    5  0.004649  1.113595e-03              0.0              0.0     NaN      1.0        True  wye
126   Load 17 T7    5 -0.000067  9.755243e-04              0.0              0.0     NaN      1.0        True  wye
127   Load 17 T8    5 -0.004493 -2.662355e-03              0.0              0.0     NaN      1.0        True  wye
128   Load 17 T9    5 -0.008443 -1.682724e-03              0.0              0.0     NaN      1.0        True  wye
129  Load 17 T10    5 -0.013184 -2.803314e-03              0.0              0.0     NaN      1.0        True  wye
130  Load 17 T11    5 -0.016722  8.749217e-04              0.0              0.0     NaN      1.0        True  wye
131  Load 17 T12    5 -0.015474 -3.231873e-03              0.0              0.0     NaN      1.0        True  wye
132  Load 17 T13    5 -0.011515 -1.735523e-03              0.0              0.0     NaN      1.0        True  wye
133  Load 17 T14    5 -0.003844 -2.124013e-03              0.0              0.0     NaN      1.0        True  wye
134  Load 17 T15    5 -0.004068 -1.686340e-03              0.0              0.0     NaN      1.0        True  wye
135  Load 17 T16    5 -0.000279  5.311331e-04              0.0              0.0     NaN      1.0        True  wye
136  Load 17 T17    5  0.003435  1.072157e-03              0.0              0.0     NaN      1.0        True  wye
137  Load 17 T18    5  0.004927  9.036676e-04              0.0              0.0     NaN      1.0        True  wye
138  Load 17 T19    5  0.005453  1.067162e-03              0.0              0.0     NaN      1.0        True  wye
139  Load 17 T20    5  0.004515  1.059646e-03              0.0              0.0     NaN      1.0        True  wye
140  Load 17 T21    5  0.003963  1.086509e-03              0.0              0.0     NaN      1.0        True  wye
141  Load 17 T22    5  0.005081  8.470819e-04              0.0              0.0     NaN      1.0        True  wye
142  Load 17 T23    5  0.004678  1.109674e-03              0.0              0.0     NaN      1.0        True  wye
143  Load 17 T24    5  0.003933  1.051403e-03              0.0              0.0     NaN      1.0        True  wye
144   Load 18 T1    6 -0.005553  3.481040e-04              0.0              0.0     NaN      1.0        True  wye
145   Load 18 T2    6 -0.004610  2.850021e-04              0.0              0.0     NaN      1.0        True  wye
146   Load 18 T3    6 -0.004610  3.226027e-04              0.0              0.0     NaN      1.0        True  wye
147   Load 18 T4    6 -0.005759  3.691927e-04              0.0              0.0     NaN      1.0        True  wye
148   Load 18 T5    6 -0.004610  2.532833e-04              0.0              0.0     NaN      1.0        True  wye
149   Load 18 T6    6 -0.004610  3.411460e-04              0.0              0.0     NaN      1.0        True  wye
150   Load 18 T7    6 -0.002645  3.672462e-04              0.0              0.0     NaN      1.0        True  wye
151   Load 18 T8    6 -0.000139  0.000000e+00              0.0              0.0     NaN      1.0        True  wye
152   Load 18 T9    6  0.001762  2.826983e-04              0.0              0.0     NaN      1.0        True  wye
153  Load 18 T10    6  0.005473  2.984838e-04              0.0              0.0     NaN      1.0        True  wye
154  Load 18 T11    6  0.007634  3.019256e-04              0.0              0.0     NaN      1.0        True  wye
155  Load 18 T12    6  0.007634  3.014911e-04              0.0              0.0     NaN      1.0        True  wye
156  Load 18 T13    6  0.003821  3.199336e-04              0.0              0.0     NaN      1.0        True  wye
157  Load 18 T14    6 -0.000789 -5.390087e-04              0.0              0.0     NaN      1.0        True  wye
158  Load 18 T15    6 -0.000564 -5.390087e-04              0.0              0.0     NaN      1.0        True  wye
159  Load 18 T16    6 -0.002266 -5.390087e-04              0.0              0.0     NaN      1.0        True  wye
160  Load 18 T17    6 -0.003926 -5.725018e-04              0.0              0.0     NaN      1.0        True  wye
161  Load 18 T18    6 -0.006206  3.700917e-04              0.0              0.0     NaN      1.0        True  wye
162  Load 18 T19    6 -0.006028  3.051807e-04              0.0              0.0     NaN      1.0        True  wye
163  Load 18 T20    6 -0.005919  3.258940e-04              0.0              0.0     NaN      1.0        True  wye
164  Load 18 T21    6 -0.004610  2.922140e-04              0.0              0.0     NaN      1.0        True  wye
165  Load 18 T22    6 -0.006491  2.782452e-04              0.0              0.0     NaN      1.0        True  wye
166  Load 18 T23    6 -0.006083  2.673440e-04              0.0              0.0     NaN      1.0        True  wye
167  Load 18 T24    6 -0.004610  3.252248e-04              0.0              0.0     NaN      1.0        True  wye
168   Load 19 T1    7  0.002794  5.494946e-04              0.0              0.0     NaN      1.0        True  wye
169   Load 19 T2    7  0.002468  6.199877e-04              0.0              0.0     NaN      1.0        True  wye
170   Load 19 T3    7  0.002350  6.740638e-04              0.0              0.0     NaN      1.0        True  wye
171   Load 19 T4    7  0.002159  5.409419e-04              0.0              0.0     NaN      1.0        True  wye
172   Load 19 T5    7  0.002792  7.354677e-04              0.0              0.0     NaN      1.0        True  wye
173   Load 19 T6    7  0.002775  8.029014e-04              0.0              0.0     NaN      1.0        True  wye
174   Load 19 T7    7 -0.000877  5.903412e-04              0.0              0.0     NaN      1.0        True  wye
175   Load 19 T8    7 -0.004626 -1.761315e-03              0.0              0.0     NaN      1.0        True  wye
176   Load 19 T9    7 -0.007676 -1.978138e-03              0.0              0.0     NaN      1.0        True  wye
177  Load 19 T10    7 -0.011518 -2.719366e-03              0.0              0.0     NaN      1.0        True  wye
178  Load 19 T11    7 -0.013678  6.051463e-04              0.0              0.0     NaN      1.0        True  wye
179  Load 19 T12    7 -0.012395 -2.939025e-03              0.0              0.0     NaN      1.0        True  wye
180  Load 19 T13    7 -0.010191 -2.705605e-03              0.0              0.0     NaN      1.0        True  wye
181  Load 19 T14    7 -0.004626 -1.623540e-03              0.0              0.0     NaN      1.0        True  wye
182  Load 19 T15    7 -0.004626 -1.523969e-03              0.0              0.0     NaN      1.0        True  wye
183  Load 19 T16    7 -0.001201  1.098672e-04              0.0              0.0     NaN      1.0        True  wye
184  Load 19 T17    7  0.001134  5.381036e-04              0.0              0.0     NaN      1.0        True  wye
185  Load 19 T18    7  0.002024  7.079000e-04              0.0              0.0     NaN      1.0        True  wye
186  Load 19 T19    7  0.001906  5.487021e-04              0.0              0.0     NaN      1.0        True  wye
187  Load 19 T20    7  0.002264  7.034450e-04              0.0              0.0     NaN      1.0        True  wye
188  Load 19 T21    7  0.002492  6.941146e-04              0.0              0.0     NaN      1.0        True  wye
189  Load 19 T22    7  0.002435  6.409478e-04              0.0              0.0     NaN      1.0        True  wye
190  Load 19 T23    7  0.002572  6.498096e-04              0.0              0.0     NaN      1.0        True  wye
191  Load 19 T24    7  0.002462  8.058413e-04              0.0              0.0     NaN      1.0        True  wye
192   Load 20 T1    8 -0.015759 -7.166185e-04              0.0              0.0     NaN      1.0        True  wye
193   Load 20 T2    8 -0.008570 -5.560692e-04              0.0              0.0     NaN      1.0        True  wye
194   Load 20 T3    8 -0.009972 -7.070673e-04              0.0              0.0     NaN      1.0        True  wye
195   Load 20 T4    8 -0.017201 -7.593009e-04              0.0              0.0     NaN      1.0        True  wye
196   Load 20 T5    8 -0.006277 -5.683913e-04              0.0              0.0     NaN      1.0        True  wye
197   Load 20 T6    8 -0.006876 -6.479668e-04              0.0              0.0     NaN      1.0        True  wye
198   Load 20 T7    8 -0.001657 -6.044797e-04              0.0              0.0     NaN      1.0        True  wye
199   Load 20 T8    8 -0.000761 -7.626845e-04              0.0              0.0     NaN      1.0        True  wye
...

EXT_GRID:
         name  bus  vm_pu  va_degree  slack_weight  in_service
0   ExtGrid 0   19    1.0        0.0           1.0        True
1  ExtGrid 27   21    1.0        0.0           1.0        True
--------------------------------------------------

LINE:
       name std_type  from_bus  to_bus  length_km  r_ohm_per_km  x_ohm_per_km  c_nf_per_km  g_us_per_km  max_i_ka   df  parallel  type  in_service   geo
0    Line 0     None        20      15   0.400000        0.5502         0.429          0.0          0.0      0.23  1.0         1  None        True  None
1   Line 38     None        18       5   0.225610        0.5502         0.429          0.0          0.0      0.23  1.0         1  None        True  None
2   Line 40     None        18       7   0.196469        0.5502         0.429          0.0          0.0      0.23  1.0         1  None        True  None
3   Line 41     None        18       8   0.050000        0.2747         0.402          0.0          0.0      0.34  1.0         1  None        True  None
4   Line 42     None        10       9   0.141421        0.5502         0.429          0.0          0.0      0.23  1.0         1  None        True  None
5   Line 11     None        22      17   0.412311        0.5502         0.429          0.0          0.0      0.23  1.0         1  None        True  None
6   Line 12     None        15       9   0.316228        0.5502         0.429          0.0          0.0      0.23  1.0         1  None        True  None
7   Line 44     None        11      10   0.200000        0.5502         0.429          0.0          0.0      0.23  1.0         1  None        True  None
8   Line 47     None        14      13   0.200000        0.5502         0.429          0.0          0.0      0.23  1.0         1  None        True  None
9   Line 48     None         1       0   0.172047        0.5502         0.429          0.0          0.0      0.23  1.0         1  None        True  None
10  Line 50     None         3       0   0.194165        0.5502         0.429          0.0          0.0      0.23  1.0         1  None        True  None
11  Line 51     None         2       1   0.263059        0.5502         0.429          0.0          0.0      0.23  1.0         1  None        True  None
12  Line 21     None        17      12   0.141421        0.5502         0.429          0.0          0.0      0.23  1.0         1  None        True  None
13  Line 22     None        17      13   0.223607        0.5502         0.429          0.0          0.0      0.23  1.0         1  None        True  None
14  Line 24     None        16       0   0.136015        0.5502         0.429          0.0          0.0      0.23  1.0         1  None        True  None
15  Line 57     None         6       5   0.253180        0.5502         0.429          0.0          0.0      0.23  1.0         1  None        True  None
16  Line 56     None         8       4   0.353836        0.5502         0.429          0.0          0.0      0.23  1.0         1  None        True  None
--------------------------------------------------

TRAFO:
                   name std_type  hv_bus  lv_bus  sn_mva  vn_hv_kv  vn_lv_kv  vk_percent  vkr_percent  pfe_kw  i0_percent  shift_degree tap_side  tap_neutral  tap_min  tap_max  tap_step_percent  tap_step_degree  tap_pos tap_changer_type  id_characteristic_table  tap_dependency_table  parallel   df  in_service
0   MV/LV Transformer 2     None      15      16    10.0      15.0       0.4        0.01         0.01    0.01        0.01           0.0     None          NaN      NaN      NaN               NaN              NaN      NaN              NaN                     <NA>                 False         1  1.0        True
1   MV/LV Transformer 5     None      17      18    10.0      15.0       0.4        0.01         0.01    0.01        0.01           0.0     None          NaN      NaN      NaN               NaN              NaN      NaN              NaN                     <NA>                 False         1  1.0        True
2   Slack Transformer 0     None      19      20    40.0      70.0      15.0        0.01         0.01    0.01        0.01           0.0     None          NaN      NaN      NaN               NaN              NaN      NaN              NaN                     <NA>                 False         1  1.0        True
3  Slack Transformer 27     None      21      22    40.0      70.0      15.0        0.01         0.01    0.01        0.01           0.0     None          NaN      NaN      NaN               NaN              NaN      NaN              NaN                     <NA>                 False         1  1.0        True
--------------------------------------------------

RES_BUS:
       vm_pu  va_degree      p_mw    q_mvar
0   0.999092   0.081311 -0.003306  0.000296
1   0.998500   0.124822  0.002331  0.000545
2   1.000096   0.257346 -0.002337  0.000731
3   0.996489   0.038392  0.002957  0.001188
4   0.995682  -0.237443  0.004492 -0.000512
5   0.999620   0.083479  0.003933  0.001051
6   1.003394   0.278420 -0.004610  0.000325
7   0.997859  -0.044440  0.002462  0.000806
8   1.000696   0.043477 -0.011518 -0.000656
9   0.999902  -0.000490  0.013566  0.006406
10  0.999889  -0.000549  0.010601  0.006437
11  0.999880  -0.000582  0.013200  0.009125
12  0.999946  -0.001363  0.013785  0.004015
13  0.999932  -0.001877  0.016369 -0.005036
14  0.999921  -0.001958  0.015277  0.009036
15  0.999944  -0.000172  0.000000  0.000000
16  0.999944  -0.000170  0.000000  0.000000
17  0.999951  -0.001230  0.000000  0.000000
18  0.999951  -0.001229  0.000000  0.000000
19  1.000000   0.000000 -0.037053 -0.029744
20  1.000000   0.000004  0.000000  0.000000
21  1.000000   0.000000 -0.040267 -0.014077
22  1.000000   0.000002  0.000000  0.000000
--------------------------------------------------

RES_LINE:
       p_from_mw  q_from_mvar       p_to_mw  q_to_mvar         pl_mw       ql_mvar  i_from_ka   i_to_ka      i_ka  vm_from_pu  va_from_degree  vm_to_pu  va_to_degree  loading_percent
0   3.704321e-02     0.025744 -3.704122e-02  -0.025743  1.990479e-06  1.552009e-06   0.001736  0.001736  0.001736    1.000000        0.000004  0.999944     -0.000172         0.754919
1  -6.570999e-04     0.001392  6.589393e-04  -0.001391  1.839435e-06  1.434237e-06   0.002223  0.002223  0.002223    0.999951       -0.001229  0.999620      0.083479         0.966304
2   2.466593e-03     0.000809 -2.462040e-03  -0.000806  4.553493e-06  3.550433e-06   0.003747  0.003747  0.003747    0.999951       -0.001229  0.997859     -0.044440         1.629209
3  -6.995756e-03    -0.001142  7.000070e-03   0.001149  4.313697e-06  6.312727e-06   0.010232  0.010232  0.010232    0.999951       -0.001229  1.000696      0.043477         3.009338
4  -2.380166e-02    -0.015562  2.380194e-02   0.015562  2.797294e-07  2.181096e-07   0.001095  0.001095  0.001095    0.999889       -0.000549  0.999902     -0.000490         0.475952
5   4.025724e-02     0.010077 -4.025551e-02  -0.010075  1.736368e-06  1.353874e-06   0.001597  0.001597  0.001597    1.000000        0.000002  0.999951     -0.001230         0.694480
6   3.736974e-02     0.021969 -3.736829e-02  -0.021968  1.453280e-06  1.133146e-06   0.001669  0.001669  0.001669    0.999944       -0.000172  0.999902     -0.000490         0.725481
7  -1.320046e-02    -0.009125  1.320058e-02   0.009125  1.259708e-07  9.822153e-08   0.000618  0.000618  0.000618    0.999880       -0.000582  0.999889     -0.000549         0.268578
8  -1.527709e-02    -0.009036  1.527724e-02   0.009036  1.541013e-07  1.201553e-07   0.000683  0.000683  0.000683    0.999921       -0.001958  0.999932     -0.001877         0.297057
9   3.820251e-07    -0.001280  5.905462e-07   0.001281  9.725713e-07  7.583298e-07   0.001851  0.001851  0.001851    0.998500        0.124822  0.999092      0.081311         0.804617
10 -2.956772e-03    -0.001188  2.963600e-03   0.001194  6.828209e-06  5.324067e-06   0.004616  0.004616  0.004616    0.996489        0.038392  0.999092      0.081311         2.006870
11  2.336801e-03    -0.000731 -2.331378e-03   0.000736  5.422396e-06  4.227931e-06   0.003534  0.003534  0.003534    1.000096        0.257346  0.998500      0.124822         1.536457
12  1.378470e-02     0.004016 -1.378463e-02  -0.004015  7.129554e-08  5.559030e-08   0.000553  0.000553  0.000553    0.999951       -0.001230  0.999946     -0.001363         0.240284
13  3.164707e-02     0.004000 -3.164651e-02  -0.004000  5.564379e-07  4.338638e-07   0.001228  0.001228  0.001228    0.999951       -0.001230  0.999932     -0.001877         0.533847
14 -3.385257e-04     0.002774  3.421779e-04  -0.002771  3.652159e-06  2.847649e-06   0.004033  0.004033  0.004033    0.999944       -0.000170  0.999092      0.081311         1.753611
15  4.610019e-03    -0.000325 -4.591549e-03   0.000340  1.846919e-05  1.440073e-05   0.006648  0.006648  0.006648    1.003394        0.278420  0.999620      0.083479         2.890418
16  4.517585e-03    -0.000493 -4.492492e-03   0.000512  2.509242e-05  1.956497e-05   0.006555  0.006555  0.006555    1.000696        0.043477  0.995682     -0.237443         2.849846
--------------------------------------------------

RES_TRAFO:
    p_hv_mw  q_hv_mvar   p_lv_mw  q_lv_mvar    pl_mw  ql_mvar   i_hv_ka   i_lv_ka  vm_hv_pu  va_hv_degree  vm_lv_pu  va_lv_degree  loading_percent
0 -0.000329   0.003773  0.000339  -0.002774  0.00001    0.001  0.000146  0.004033  0.999944     -0.000172  0.999944     -0.000170         0.037879
1 -0.005176   0.002059  0.005186  -0.001059  0.00001    0.001  0.000214  0.007641  0.999951     -0.001230  0.999951     -0.001229         0.055711
2  0.037053   0.029744 -0.037043  -0.025744  0.00001    0.004  0.000392  0.001736  1.000000      0.000000  1.000000      0.000004         0.118787
3  0.040267   0.014077 -0.040257  -0.010077  0.00001    0.004  0.000352  0.001597  1.000000      0.000000  1.000000      0.000002         0.106642
--------------------------------------------------

RES_EXT_GRID:
       p_mw    q_mvar
0  0.037053  0.029744
1  0.040267  0.014077
--------------------------------------------------

RES_LOAD:
         p_mw    q_mvar
0   -0.000000  0.000000
1   -0.000000  0.000000
2   -0.000000  0.000000
3   -0.000000  0.000000
4   -0.000000  0.000000
5   -0.000000  0.000000
6   -0.000000 -0.000000
7   -0.000000 -0.000000
8    0.000000 -0.000000
9    0.000000  0.000000
10   0.000000  0.000000
11   0.000000  0.000000
12   0.000000  0.000000
13  -0.000000 -0.000000
14  -0.000000 -0.000000
15  -0.000000 -0.000000
16  -0.000000 -0.000000
17  -0.000000  0.000000
18  -0.000000  0.000000
19  -0.000000  0.000000
20  -0.000000  0.000000
21  -0.000000  0.000000
22  -0.000000  0.000000
23  -0.003306  0.000296
24   0.000000  0.000000
25   0.000000  0.000000
26   0.000000  0.000000
27   0.000000  0.000000
28   0.000000  0.000000
29   0.000000  0.000000
30  -0.000000 -0.000000
31  -0.000000 -0.000000
32  -0.000000 -0.000000
33  -0.000000 -0.000000
34  -0.000000 -0.000000
35  -0.000000 -0.000000
36  -0.000000 -0.000000
37  -0.000000 -0.000000
38  -0.000000 -0.000000
39  -0.000000 -0.000000
40   0.000000 -0.000000
41   0.000000  0.000000
42   0.000000  0.000000
43   0.000000  0.000000
44   0.000000  0.000000
45   0.000000  0.000000
46   0.000000  0.000000
47   0.002331  0.000545
48  -0.000000  0.000000
49  -0.000000  0.000000
50  -0.000000  0.000000
51  -0.000000  0.000000
52  -0.000000  0.000000
53  -0.000000  0.000000
54  -0.000000 -0.000000
55  -0.000000 -0.000000
56   0.000000  0.000000
57   0.000000  0.000000
58   0.000000  0.000000
59   0.000000  0.000000
60   0.000000  0.000000
61  -0.000000 -0.000000
62  -0.000000 -0.000000
63  -0.000000 -0.000000
64  -0.000000 -0.000000
65  -0.000000  0.000000
66  -0.000000  0.000000
67  -0.000000  0.000000
68  -0.000000  0.000000
69  -0.000000  0.000000
70  -0.000000  0.000000
71  -0.002337  0.000731
72   0.000000  0.000000
73   0.000000  0.000000
74   0.000000  0.000000
75   0.000000  0.000000
76   0.000000  0.000000
77   0.000000  0.000000
78   0.000000  0.000000
79  -0.000000 -0.000000
80  -0.000000 -0.000000
81  -0.000000 -0.000000
82  -0.000000 -0.000000
83  -0.000000 -0.000000
84  -0.000000 -0.000000
85  -0.000000 -0.000000
86  -0.000000 -0.000000
87  -0.000000  0.000000
88   0.000000  0.000000
89   0.000000  0.000000
90   0.000000  0.000000
91   0.000000  0.000000
92   0.000000  0.000000
93   0.000000  0.000000
94   0.000000  0.000000
95   0.002957  0.001188
96   0.000000 -0.000000
97   0.000000 -0.000000
98   0.000000 -0.000000
99   0.000000 -0.000000
100  0.000000 -0.000000
101  0.000000 -0.000000
102  0.000000 -0.000000
103 -0.000000 -0.000000
104 -0.000000 -0.000000
105 -0.000000 -0.000000
106 -0.000000 -0.000000
107 -0.000000 -0.000000
108 -0.000000 -0.000000
109 -0.000000 -0.000000
110 -0.000000 -0.000000
111  0.000000 -0.000000
112  0.000000 -0.000000
113  0.000000 -0.000000
114  0.000000 -0.000000
115  0.000000 -0.000000
116  0.000000 -0.000000
117  0.000000 -0.000000
118  0.000000 -0.000000
119  0.004492 -0.000512
120  0.000000  0.000000
121  0.000000  0.000000
122  0.000000  0.000000
123  0.000000  0.000000
124  0.000000  0.000000
125  0.000000  0.000000
126 -0.000000  0.000000
127 -0.000000 -0.000000
128 -0.000000 -0.000000
129 -0.000000 -0.000000
130 -0.000000  0.000000
131 -0.000000 -0.000000
132 -0.000000 -0.000000
133 -0.000000 -0.000000
134 -0.000000 -0.000000
135 -0.000000  0.000000
136  0.000000  0.000000
137  0.000000  0.000000
138  0.000000  0.000000
139  0.000000  0.000000
140  0.000000  0.000000
141  0.000000  0.000000
142  0.000000  0.000000
143  0.003933  0.001051
144 -0.000000  0.000000
145 -0.000000  0.000000
146 -0.000000  0.000000
147 -0.000000  0.000000
148 -0.000000  0.000000
149 -0.000000  0.000000
150 -0.000000  0.000000
151 -0.000000  0.000000
152  0.000000  0.000000
153  0.000000  0.000000
154  0.000000  0.000000
155  0.000000  0.000000
156  0.000000  0.000000
157 -0.000000 -0.000000
158 -0.000000 -0.000000
159 -0.000000 -0.000000
160 -0.000000 -0.000000
161 -0.000000  0.000000
162 -0.000000  0.000000
163 -0.000000  0.000000
164 -0.000000  0.000000
165 -0.000000  0.000000
166 -0.000000  0.000000
167 -0.004610  0.000325
168  0.000000  0.000000
169  0.000000  0.000000
170  0.000000  0.000000
171  0.000000  0.000000
172  0.000000  0.000000
173  0.000000  0.000000
174 -0.000000  0.000000
175 -0.000000 -0.000000
176 -0.000000 -0.000000
177 -0.000000 -0.000000
178 -0.000000  0.000000
179 -0.000000 -0.000000
180 -0.000000 -0.000000
181 -0.000000 -0.000000
182 -0.000000 -0.000000
183 -0.000000  0.000000
184  0.000000  0.000000
185  0.000000  0.000000
186  0.000000  0.000000
187  0.000000  0.000000
188  0.000000  0.000000
189  0.000000  0.000000
190  0.000000  0.000000
191  0.002462  0.000806
192 -0.000000 -0.000000
193 -0.000000 -0.000000
194 -0.000000 -0.000000
195 -0.000000 -0.000000
196 -0.000000 -0.000000
197 -0.000000 -0.000000
198 -0.000000 -0.000000
199 -0.000000 -0.000000
...

BUS_GEODATA:
        x      y
0    11.0   48.0
1    25.0   38.0
2    51.0   42.0
3     0.0   64.0
4   129.0  138.0
5   105.0   88.0
6   130.0   92.0
7    81.0  115.0
8   103.0  114.0
9    10.0   70.0
10   20.0   80.0
11   40.0   80.0
12   90.0  120.0
13  120.0  120.0
14  120.0  100.0
15    0.0   40.0
16    0.5   39.5
17  100.0  110.0
18  100.5  109.5
19    0.0    0.0
20    0.5   -0.5
21   60.0  120.0
22   60.5  119.5
--------------------------------------------------
